

@<TRIPOS>MOLECULE
*****
 7 6 0 0 0
SMALL
GASTEIGER

@<TRIPOS>ATOM
      1 C           0.0000    0.0000    0.0000 C.3     1  UNL1        0.2125
      2 CA          0.0000    0.0000    0.0000 C.3     1  UNL1        0.2270
      3 C           0.0000    0.0000    0.0000 C.2     1  UNL1        0.3845
      4 O           0.0000    0.0000    0.0000 O.co2   1  UNL1       -0.2440
      5 O           0.0000    0.0000    0.0000 O.co2   1  UNL1       -0.2440
      6 N           0.0000    0.0000    0.0000 N.3     1  UNL1       -0.1180
      7 O           0.0000    0.0000    0.0000 O.3     1  UNL1       -0.2182
@<TRIPOS>BOND
     1     1     2    1
     2     2     3    1
     3     3     4   ar
     4     3     5   ar
     5     2     6    1
     6     1     7    1
